         300
  Built with Packmol                                             
  O            5.297701       12.222978       19.929318
  H            4.724819       13.034387       19.813603
  H            5.304184       11.427510       20.535251
  O           24.559838       20.188680       15.441279
  H           24.937842       19.310903       15.147019
  H           24.926221       21.094256       15.654966
  O           21.386422       20.129065       11.364749
  H           21.115069       20.520421       10.485445
  H           22.190603       19.655392       11.723768
  O           15.803884       23.072441       24.767214
  H           16.590763       22.505418       25.010675
  H           14.941342       22.934916       24.280312
  O           16.499173       10.989065       15.010285
  H           17.169717       11.510913       15.537553
  H           15.935193       11.153129       14.200979
  O           19.333626       15.394998       11.940793
  H           19.051406       14.801844       11.186813
  H           19.251479       16.367005       12.160840
  O            3.422186       17.509831        7.315455
  H            2.959923       16.623687        7.347536
  H            3.154943       18.465426        7.439491
  O           12.562190       18.966885       23.218069
  H           12.044714       19.820193       23.154433
  H           12.496771       18.124127       23.752339
  O           19.360815       24.298397        2.312826
  H           18.743985       25.021710        2.623158
  H           19.282231       23.483055        1.739234
  O           15.469847       24.658861       13.783581
  H           14.533395       25.009477       13.793264
  H           16.373897       25.027945       13.568086
  O           13.890453       19.879084        1.408953
  H           13.172301       19.183329        1.421135
  H           14.566768       20.226184        2.058635
  O            0.364371       11.741617       11.638762
  H           -0.010588       12.668641       11.638016
  H           -0.009912       10.814331       11.642996
  O           14.012099        1.706189        7.061221
  H           14.953781        1.428954        6.870584
  H           13.240068        2.047136        6.524853
  O           10.456691       14.770927       16.222481
  H            9.581783       14.289627       16.169072
  H           11.365326       14.572867       16.590070
  O           15.170408       -0.006703       13.020116
  H           14.198842        0.067860       13.244762
  H           15.901378        0.627812       12.769036
  O           10.581810       18.964307       10.463085
  H           10.487412       19.959767       10.452306
  H           10.021160       18.185536       10.181742
  O           20.555634       12.147770        5.858080
  H           20.237552       12.874392        6.467023
  H           21.426418       11.889798        5.439567
  O            8.013912       23.104397       22.130489
  H            8.547708       22.261142       22.067633
  H            7.443986       23.642865       21.509842
  O           15.942280        4.940364       17.435405
  H           16.252840        5.672065       18.042145
  H           15.953850        3.940550       17.449733
  O           20.029610       19.189260       24.838027
  H           20.602887       19.319090       24.029037
  H           19.100287       18.866165       25.016733
  O           22.395950        6.360325       20.579982
  H           21.865297        5.516364       20.658111
  H           23.363962        6.595984       20.494055
  O           11.466195        3.254463        0.075487
  H           11.377447        2.259388        0.119243
  H           10.838402        4.030870        0.020396
  O            1.754519       17.039413       12.387384
  H            1.730453       17.476480       11.488296
  H            1.077855       16.741641       13.060752
  O            0.361268       11.335921       21.293201
  H           -0.046069       10.439186       21.466148
  H            0.028667       12.276812       21.229433
  O           16.726782       10.151168        9.585227
  H           15.819223       10.283938        9.186887
  H           17.391892       10.722527       10.066003
  O           11.218476        7.965972       20.985814
  H           10.511122        7.333747       20.669729
  H           12.188351        7.901171       21.220569
  O           12.167717        2.808664       19.680242
  H           12.792814        2.816236       20.460731
  H           11.859346        3.472785       18.999200
  O           12.160019       23.325920        5.131669
  H           11.499933       22.575785        5.092301
  H           13.152851       23.406514        5.219745
  O           22.289695       12.129555       12.936583
  H           22.822850       12.923511       13.228721
  H           21.471618       11.653988       13.259931
  O            4.947115        3.047536        3.619897
  H            3.985855        3.323112        3.622273
  H            5.829989        3.517099        3.616734
  O           21.873990       15.695660       21.877854
  H           22.735885       15.272625       22.157397
  H           20.941361       15.380153       21.702851
  O            7.454683        7.928904       24.917394
  H            7.295960        8.911856       25.010021
  H            8.252632        7.326212       24.915142
  O           24.334735       21.872099        1.151263
  H           23.494909       21.423040        0.846296
  H           24.568339       22.596517        1.799811
  O           14.276451       19.215474        6.568365
  H           14.707642       18.408625        6.164589
  H           13.722362       19.405211        7.378890
  O            4.243565        3.795006       24.726160
  H            5.207941        3.968501       24.925774
  H            3.556541        3.130320       25.019682
  O            2.488798       24.862795       12.492701
  H            2.253263       24.652079       13.441431
  H            2.026660       24.807845       11.607616
  O           16.928050       25.032411        8.235531
  H           16.073708       24.518187        8.310632
  H           17.901695       24.807814        8.196293
  O            7.173267       20.247743        5.444479
  H            7.594773       20.607380        4.612035
  H            7.189805       19.380640        5.942300
  O           24.918227       20.051509        8.217301
  H           25.086326       20.928129        8.668129
  H           25.063999       19.087883        8.441225
  O           19.852444       17.738326        6.809088
  H           20.375432       17.160434        7.435580
  H           19.069811       17.613591        6.199258
  O            9.495358       12.078869       12.351661
  H           10.471921       11.877922       12.274763
  H            8.764579       12.347076       11.723973
  O           10.580672       10.630557        7.321397
  H           10.808417        9.688549        7.567813
  H           10.959298       11.325860        6.710526
  O           14.298338       13.183650       24.812288
  H           14.190735       12.204217       24.641706
  H           13.705762       13.988545       24.781226
  O           21.288718       21.775462        5.488551
  H           20.416510       22.009165        5.918204
  H           22.212402       22.158504        5.481215
  O            2.440430        0.372987        0.351316
  H            2.795086        1.216610       -0.051779
  H            1.602317        0.097734        0.822239
  O           20.655455       12.187858       18.622185
  H           20.316722       11.252874       18.727224
  H           20.755214       12.836222       17.867441
  O            1.973908        2.980883       13.373531
  H            2.011765        2.505312       14.252374
  H            1.315528        3.565976       12.900066
  O           24.948359        5.287882        4.765046
  H           24.999862        6.277161        4.901580
  H           25.001080        4.665882        3.983826
  O            6.014345        2.886682       18.261651
  H            5.015253        2.852348       18.237091
  H            6.762265        2.372878       17.841428
  O           15.131845       15.686540       13.544937
  H           14.702126       16.358021       12.941264
  H           15.135657       15.501221       14.527592
  O            3.672997       10.519922        0.814917
  H            3.707568       11.491676        0.581539
  H            2.956090        9.857210        1.031309
  O           23.026705       -0.044116       18.884551
  H           23.500200        0.489477       19.585298
  H           22.402650        0.154191       18.128776
  O            3.325313        7.333823       14.024885
  H            3.145578        8.307993       13.888306
  H            4.136535        6.762738       14.150380
  O            7.434912        7.974362       17.226393
  H            7.553179        8.808395       17.765251
  H            8.037577        7.334858       16.749113
  O           15.908608       16.375112       19.640905
  H           16.762007       15.969581       19.968352
  H           14.942795       16.320982       19.894364
  O           17.824753        0.898318       24.265672
  H           18.465962        1.058260       25.016162
  H           17.321143        1.467929       23.616144
  O           18.087807       24.036261       20.705021
  H           17.633110       24.231059       19.835957
  H           18.522560       23.240648       21.126870
  O           25.032858        2.588860       14.722599
  H           24.714607        1.641110       14.701307
  H           24.603327        3.491864       14.729957
  O            4.168072       18.063809       20.052257
  H            3.542413       17.341824       20.347650
  H            4.317103       19.025323       20.283008
  O            6.152444       22.296130       10.319145
  H            5.335001       21.721976       10.273326
  H            6.344134       23.262146       10.492454
  O           20.208902        6.621971       12.659144
  H           21.093812        7.070422       12.784812
  H           19.249856        6.874689       12.786935
  O            9.288545       22.287217       16.028844
  H            9.153358       21.384177       16.436533
  H            9.477173       23.208725       16.368268
  O            0.985112        0.364673       21.451857
  H            0.056761       -0.006873       21.461124
  H            1.909143       -0.005875       21.545818
  O            8.257646       14.413380        3.662505
  H            8.718754       13.671384        3.175897
  H            7.377028       14.881869        3.591816
  O            9.544410        6.940356       12.419593
  H            9.389213        7.014108       11.434483
  H           10.305886        6.672239       13.009706
  O           21.628724       24.601727       14.433590
  H           22.523173       24.949989       14.714018
  H           20.709351       24.981152       14.329873
  O           25.033644       11.041365       18.013795
  H           25.042043       11.978666       18.362167
  H           24.576445       10.186682       18.259671
  O           16.213337        4.644582        3.669514
  H           17.160696        4.730987        3.361274
  H           15.358266        4.303180        3.279303
  O           19.474978       12.377584       24.995008
  H           18.721849       12.961382       24.691786
  H           20.473207       12.436474       25.001153
  O            4.398869       12.381726       14.981293
  H            5.041086       12.671560       14.271701
  H            3.661191       12.810776       15.502553
  O           24.772023       18.569290       20.072759
  H           25.025967       19.521032       20.244997
  H           24.960993       17.891748       19.361988
  O           19.866174       18.969458       16.810100
  H           20.319490       19.768086       17.205909
  H           18.961058       18.768153       16.435657
  O           17.529824        7.833201       21.859996
  H           17.880523        8.394510       21.110390
  H           16.738914        7.862181       22.471215
  O           13.873906       21.010036       16.169015
  H           14.254502       20.087004       16.224922
  H           13.868212       21.822273       16.752287
  O            3.071257       12.561045        4.924189
  H            3.769935       12.480739        5.635080
  H            2.598171       13.311121        4.462082
  O           18.187189        8.141111        5.945178
  H           17.834785        8.749233        5.233865
  H           19.036498        8.060731        6.466886
  O            7.533179        0.329918        6.126734
  H            6.615817       -0.048443        6.250251
  H            8.455647       -0.040787        6.019041
  O           23.340847       23.872242       20.669447
  H           24.322738       23.821561       20.851899
  H           22.666974       24.602385       20.556514
  O           20.267915        2.770899       14.785513
  H           20.106679        3.040425       15.734895
  H           19.764967        2.261953       14.086955
  O            6.737031       18.094970        0.544034
  H            7.277803       18.936042        0.555493
  H            6.687608       17.279409       -0.032493
  O           22.572906       24.670072        9.776432
  H           23.355693       24.733046       10.395500
  H           22.365396       24.972602        8.846173
  O            4.872439        6.793586        8.477209
  H            5.693906        6.715014        9.041996
  H            3.889951        6.668605        8.615283
  O           18.679550        0.839459        0.941933
  H           19.017469        0.385468        1.766354
  H           18.979373        0.920934       -0.008558
  O           25.043965       14.838607        6.557232
  H           24.910524       15.534532        5.851648
  H           24.492214       14.444386        7.292165
  O           18.481406       16.122921       -0.065779
  H           18.697047       17.096199        0.012928
  H           18.998347       15.267299       -0.040282
  O            5.992271       18.760295       14.813885
  H            5.472094       18.816363       13.961688
  H            6.100485       18.089687       15.547739
  O            5.863695        8.678207        4.187726
  H            6.689070        8.975165        4.667869
  H            5.302939        7.850543        4.165518
  O            8.739438       17.360272       19.442059
  H            8.612884       18.341724       19.585943
  H            8.278058       16.524341       19.739235
  O           15.435282       14.783908        8.683447
  H           14.499312       14.542152        8.939338
  H           16.069648       14.530249        7.953239
  O            1.556373        6.348654       21.031077
  H            2.406565        5.869740       20.812487
  H            0.617158        6.083626       21.249256
  O            5.040971        5.832171       -0.038721
  H            4.045110        5.741572       -0.043128
  H            5.694329        6.589130       -0.028555
  O           22.425034       17.003297        2.546551
  H           22.791244       16.674010        1.676248
  H           21.964481       17.831481        2.865877
  O           13.924765        5.709160        9.790430
  H           13.275515        6.358799        9.394942
  H           14.807701        5.767920       10.256197
  O           15.901570       14.339778        3.133153
  H           15.423491       13.503986        3.403077
  H           16.255585       15.149183        3.601665
  O           23.214090        2.459392       -0.028325
  H           23.145846        3.432994        0.189409
  H           23.324081        1.612117        0.491284
  O           22.379937        4.998691       25.017788
  H           21.419793        5.276898       25.044084
  H           22.876822        4.131736       24.979560
  O            8.924473       14.113251       24.064776
  H            9.139758       13.159169       24.272975
  H            9.446939       14.937084       23.845012
  O            0.140074        4.303631        6.123647
  H            0.257733        5.140150        6.658772
  H           -0.058960        4.082506        5.168945
  O            5.540895        2.086336        9.937348
  H            4.717042        2.331037        9.426120
  H            5.859017        1.288814       10.449915
  O           23.022089        8.050649        0.377787
  H           22.354559        7.679957        1.023510
  H           23.231169        8.951390       -0.002893
