         585
  Built with Packmol                                             
  O            5.950209       17.978223        2.270389
  H            6.938345       18.026835        2.415957
  H            5.188835       17.466504        2.668409
  O           12.596063        9.094436        6.293363
  H           13.488912        8.848960        5.915834
  H           11.709584        9.370919        5.922310
  O            3.079373        9.092769        7.574414
  H            2.711006        8.612574        8.370457
  H            2.746523        9.335460        6.663218
  O            8.991239       12.518544        0.158602
  H            8.011302       12.679356        0.040997
  H            9.830153       13.037163       -0.006391
  O            2.516633        6.414326        5.906406
  H            2.170400        5.806034        5.192213
  H            2.732035        6.331769        6.879418
  O           14.774974        1.733128       15.139700
  H           15.073407        2.637644       15.444258
  H           13.908223        1.315850       14.866591
  O           16.129741        7.838693        7.670332
  H           16.541031        8.597291        8.175639
  H           15.477910        7.108228        7.874056
  O           13.085257        0.146144        8.879699
  H           12.352847       -0.011160        8.217281
  H           14.068407       -0.031884        8.920781
  O            2.658538        4.115152       -0.007788
  H            1.816374        3.575965       -0.005809
  H            3.638874        3.917942       -0.012056
  O           12.794486        2.225560        0.214136
  H           12.124809        1.503732        0.388678
  H           13.764870        2.264106       -0.024265
  O            3.936043       16.668333        0.325446
  H            4.821421       16.988232       -0.011801
  H            2.976286       16.856216        0.116798
  O           11.089040       15.389421        3.885245
  H           10.595437       14.639560        3.444755
  H           11.827253       15.469240        4.555049
  O            5.476265        6.249415        9.216735
  H            5.703069        5.549403        9.893868
  H            5.041834        6.265065        8.316184
  O            9.900010       11.251391        9.271299
  H           10.241281       11.930715        9.920930
  H            9.005647       10.986689        8.910724
  O            2.618290       12.264422       11.243991
  H            3.037906       12.917051       10.613147
  H            2.917785       11.740424       12.041297
  O            1.308953        3.718624        7.979765
  H            0.992520        2.775328        7.879619
  H            0.877702        4.617121        8.061568
  O            9.287341        3.843331        1.000852
  H            9.256256        3.642043        0.021830
  H            8.644557        4.187556        1.685179
  O           12.285324        0.777020       17.216764
  H           12.937949        0.943190       17.955976
  H           11.925593       -0.026117       16.741865
  O            8.203446       17.238231        9.992768
  H            7.635411       18.020403       10.248718
  H            9.034970       17.098426        9.455191
  O            0.023376        4.192427        4.454462
  H           -0.008034        4.921292        3.770550
  H           -0.003071        4.141187        5.452781
  O            1.695111        8.060786       16.207917
  H            2.528817        8.612171       16.237492
  H            0.742515        8.210830       15.943315
  O           15.365051        9.972767       17.489680
  H           15.264125       10.795017       16.929604
  H           14.993383        9.044492       17.478102
  O            5.888403        9.756661        9.838746
  H            6.552590       10.030947       10.534153
  H            5.784034        8.988496        9.207085
  O            9.958040       18.005831        3.128520
  H            9.311867       17.476259        3.678047
  H           10.796533       17.812371        2.619139
  O            9.574743       14.903872       17.673251
  H            8.615536       14.650456       17.548074
  H           10.069171       15.709215       18.000254
  O            1.185007        0.026304        5.800430
  H            1.791861       -0.008398        5.006395
  H            0.239669        0.303755        5.971667
  O            6.805608       15.123649        3.716627
  H            6.647998       14.138183        3.653508
  H            7.290204       15.736026        4.341228
  O            7.289253       15.384867       15.246162
  H            6.531476       14.847832       14.875575
  H            8.236852       15.567803       14.984327
  O           13.870135       14.880980        2.677239
  H           13.147755       14.214053        2.494643
  H           13.917787       15.870423        2.813986
  O            5.049818        7.529387        4.862649
  H            4.518299        7.104512        4.129890
  H            5.034285        7.517452        5.862440
  O            6.923206        3.095506       10.111942
  H            7.275411        2.590620        9.323901
  H            6.303620        2.901020       10.872373
  O           17.004959        9.448479       12.221529
  H           17.892531        9.076502       12.493220
  H           16.048770        9.173177       12.320914
  O           12.600416       11.482724       18.005082
  H           12.716502       10.489542       18.014049
  H           13.206883       12.277714       17.992638
  O           11.678501        8.261676       14.638910
  H           10.851898        8.666205       15.030126
  H           11.882376        7.541164       13.976139
  O            0.310722       11.525690        3.416836
  H            0.010777       12.393346        3.813286
  H            0.008315       10.573412        3.457865
  O            8.817935       11.925471       14.530889
  H            8.792458       12.924521       14.496003
  H            8.267803       11.206298       14.955284
  O            1.090142       11.008107       14.393451
  H            1.957648       11.024659       14.890568
  H            0.272141       10.432919       14.393175
  O           18.020370       14.131304       12.977265
  H           18.023461       13.230068       13.410545
  H           17.323620       14.771254       12.653275
  O            6.260656       17.127449        8.035994
  H            6.303177       18.055192        7.665248
  H            6.743077       16.266213        7.876278
  O            4.790629       10.767888       15.531597
  H            4.594957       11.709519       15.257716
  H            5.490337       10.086752       15.316126
  O           17.986502       14.208730        3.246389
  H           17.887244       14.394914        2.268918
  H           17.873478       14.729046        4.092831
  O            1.031535       12.125706        6.984594
  H            1.555070       12.166159        7.835617
  H            0.364943       12.709964        6.521705
  O           10.299313        5.092913        4.776883
  H            9.926326        4.352186        4.218160
  H           10.289464        5.337609        5.746416
  O            7.980056       13.993775        8.801887
  H            8.689942       14.350836        8.194814
  H            7.955994       13.425381        9.624271
  O            0.987517        2.439840       12.574132
  H            1.250549        2.697859       11.644505
  H            1.088888        1.629858       13.151731
  O           11.578751        1.987170        4.705327
  H           11.271826        2.376574        5.573733
  H           11.252068        1.990238        3.760215
  O            0.859114       10.115059       11.204708
  H            1.140360       10.123293       10.245125
  H            0.019782        9.905997       11.706487
  O            0.759673        2.635512       16.057005
  H            1.574237        2.937474       16.552253
  H            0.358465        1.756131       15.800709
  O            6.616899        5.997399       15.094628
  H            7.405156        5.384949       15.035276
  H            6.459105        6.940324       15.387816
  O           11.292382       15.225188       13.676048
  H           10.371127       15.221632       13.287147
  H           12.101645       15.808071       13.603197
  O           12.773713       11.088116       10.564091
  H           12.484604       10.387997       11.216943
  H           13.445799       11.828497       10.553954
  O           13.425422        0.481733       12.291073
  H           14.326239        0.054764       12.369766
  H           13.074116        1.416901       12.246233
  O            6.479146       -0.013928        2.779542
  H            6.389036        0.379245        1.864522
  H            5.922975       -0.037521        3.610255
  O            5.063314       11.791636        1.751691
  H            4.216541       11.261810        1.798886
  H            5.303141       12.760595        1.691961
  O            9.268739        0.572164        2.491557
  H            8.805351        1.445271        2.642958
  H            9.486345        0.001092        1.700045
  O           15.558822       12.531199       12.411227
  H           15.707263       11.793269       13.069551
  H           15.879598       12.747901       11.489213
  O           15.838771        3.642630        6.407293
  H           15.760593        4.631692        6.282346
  H           15.365855        2.946199        6.947017
  O            0.410344        2.064754        2.513797
  H            1.097056        1.974034        3.235020
  H            0.003488        2.819202        1.998779
  O            9.480346        4.002036       10.542978
  H           10.060676        4.000871       11.357338
  H            9.628646        4.003026        9.554053
  O            9.006136        0.325648        5.655032
  H            8.175294        0.015921        5.192714
  H            9.590298       -0.017166        6.390695
  O           15.346210        4.887663        0.893633
  H           15.293596        4.547867       -0.045376
  H           14.701695        5.026568        1.645479
  O            0.032942       13.078531       16.564580
  H           -0.012466       12.774686       17.516201
  H            0.759528       13.280048       15.907747
  O           14.676886        2.565161        4.029687
  H           13.922228        2.525369        3.374802
  H           15.432709        1.965891        4.293455
  O           17.211301        6.735714        5.172515
  H           17.787513        6.478741        5.948345
  H           16.264561        7.032067        5.046713
  O           14.419758       15.091698        5.402817
  H           14.287603       14.158242        5.736227
  H           15.184039       15.734141        5.347080
  O            0.962700       15.762112        7.669890
  H            1.484409       14.911148        7.730279
  H           -0.004162       16.016266        7.693364
  O           13.034523        5.480351        5.714312
  H           13.675597        6.157686        5.353468
  H           13.045422        4.493294        5.874208
  O            0.961766       10.021313       18.002790
  H           -0.035890       10.079238       18.038769
  H            1.716955       10.669841       17.907571
  O           16.493965       13.067444        0.020091
  H           16.283598       14.044786        0.042818
  H           15.966290       12.218707       -0.014114
  O           17.429440        5.079854       15.814568
  H           18.015165        5.010014       16.622042
  H           16.449657        5.007254       15.628227
  O            0.590528       14.342483       13.385726
  H            0.389555       13.382203       13.192235
  H            1.406959       14.876290       13.605859
  O            4.042573        8.336436        1.722109
  H            3.237883        8.720922        2.174449
  H            4.211341        7.643237        1.021424
  O           17.966052       15.639452       15.999266
  H           17.960240       16.011498       16.927445
  H           17.285737       15.260387       15.372012
  O           16.398910       11.654941        2.647263
  H           17.339515       11.701629        2.311036
  H           15.896765       11.091847        3.303573
  O            6.524104        6.362027        0.275311
  H            6.850653        7.306188        0.318813
  H            6.905210        5.481362       -0.006032
  O           17.179117       12.779204        6.733987
  H           18.012054       12.359914        7.095066
  H           16.901763       13.695826        6.446158
  O           17.515943        0.039428       14.270610
  H           18.004862        0.410360       15.060125
  H           16.563919        0.001347       13.967018
  O            3.692593        0.810923        1.562039
  H            3.130622        1.625656        1.419332
  H            3.621801       -0.025574        2.105389
  O            4.035511        5.178997       15.554130
  H            3.690798        4.681518       16.350154
  H            3.860842        6.067726       15.130317
  O            9.907700       12.358845        6.256261
  H           10.610674       11.778963        6.668003
  H            9.852426       13.304282        5.935232
  O            1.047226        5.588734       14.624823
  H            1.547954        4.737214       14.469410
  H            0.085778        5.857516       14.682616
  O            1.584828       17.608691       13.707264
  H            2.496309       18.019859       13.696771
  H            0.643508       17.946143       13.710403
  O            8.253190        2.100258       12.636059
  H            8.605199        1.706523       11.786925
  H            8.070396        3.021135       12.980353
  O           18.092036        8.138868        2.754302
  H           17.909278        7.176745        2.552102
  H           17.572636        8.992633        2.718579
  O           16.329800       17.088783        2.277131
  H           16.492465       16.954776        3.254653
  H           16.729619       16.744663        1.427606
  O            9.992033        5.239848       15.956655
  H           10.047113        6.065043       15.394528
  H            9.801452        4.271439       15.795935
  O           11.847676        5.103580        2.407332
  H           12.032075        4.392918        1.728418
  H           12.396559        5.736259        2.953602
  O            4.609799        4.917763       12.747268
  H            3.702786        4.669332       12.407302
  H            5.445582        4.426412       12.992231
  O           14.051969       10.078877        1.534631
  H           13.441106       10.518935        2.192782
  H           13.947764        9.617071        0.653812
  O           12.488278       17.649297       10.015443
  H           13.422371       17.995063       10.104232
  H           11.617947       18.007134        9.677149
  O            9.672013       18.047996       12.759936
  H            8.931953       17.563662       13.226517
  H           10.619599       17.846431       12.512106
  O           14.968566        3.392357       10.890635
  H           13.996740        3.627982       10.889172
  H           15.823074        3.862730       10.670335
  O            4.525460        2.876030        8.778630
  H            3.602338        2.737206        9.137156
  H            4.966510        3.525876        8.159646
  O            3.250320       13.329892        3.446012
  H            3.863034       12.811115        4.042181
  H            2.479813       13.116237        2.845481
  O            2.755146       15.920817       15.763567
  H            3.722158       15.668667       15.727856
  H            2.214638       16.638287       16.202947
  O            6.548303        1.909074       15.359547
  H            6.284973        2.841195       15.111004
  H            7.383098        1.360594       15.312081
  O            2.930033        8.126604       13.546020
  H            1.991286        8.469012       13.507579
  H            3.819573        8.495042       13.816090
  O            8.964673        0.422200        9.380881
  H            9.919145        0.143430        9.486888
  H            8.117808       -0.013244        9.075637
  O            5.014527       16.596444       17.970142
  H            5.871845       16.082799       18.003925
  H            4.755088       17.561656       17.938162
  O           17.868388        0.519357        3.302107
  H           18.053362        1.502052        3.310013
  H           17.132867       -0.076730        3.624063
  O           12.541603       14.516274        7.825282
  H           11.677363       14.014578        7.862125
  H           12.817169       15.463062        7.659081
  O            0.392364       13.589726       10.311758
  H            0.027070       14.491832       10.541396
  H            0.009667       12.705911       10.042721
  O           13.057701       15.331436       16.291865
  H           13.701695       15.946163       15.836511
  H           12.525713       14.525753       16.031422
  O           11.451129        2.397833       14.244587
  H           11.250877        3.216646       13.706616
  H           11.050988        1.945002       15.041328
  O            3.990125       15.205705        9.416429
  H            4.378234       14.854364        8.564433
  H            3.198585       15.761247        9.670996
  O           16.078466       10.347759        5.958888
  H           17.039873       10.076089        5.915792
  H           15.445306       10.641080        6.675155
  O           17.643514       17.026169        7.040194
  H           16.933809       17.568135        7.490259
  H           17.670320       16.329066        6.323748
  O           12.121927       12.564318       12.846429
  H           12.929066       13.150110       12.919506
  H           11.165569       12.687233       12.581407
  O           13.453868       16.652597        0.230901
  H           12.926230       15.803453        0.253699
  H           13.243334       17.630004        0.213088
  O           12.043435        2.666029        9.213338
  H           11.659008        2.210756       10.016400
  H           11.754336        2.824872        8.269326
  O           17.919316        0.834967        6.630305
  H           17.548721        1.527463        6.011375
  H           17.589674       -0.017495        7.036030
  O            3.429035        5.319316        2.340003
  H            2.651196        5.928904        2.492762
  H            3.993963        4.718503        2.905554
  O            4.358781        7.763570       11.218634
  H            5.278326        7.750489       11.611358
  H            3.708495        8.467569       10.933188
  O           16.186472        0.775894       10.477112
  H           16.642062       -0.012054       10.891290
  H           16.327842        1.344548        9.666795
  O           12.432460       18.039412        6.402006
  H           11.614371       17.820566        6.933799
  H           13.100759       17.524148        5.865493
  O           15.557977        6.405115       18.000421
  H           15.168484        5.484215       18.014776
  H           16.477340        6.797715       18.024996
  O            8.381967        6.584180       12.589053
  H            9.362244        6.506564       12.770710
  H            7.641493        5.953820       12.356005
  O            4.280399        1.076234       17.238140
  H            4.778931        1.489844       17.999952
  H            3.329756        0.829556       17.050005
  O           17.374258        2.779736       13.244172
  H           17.872155        2.991802       14.085061
  H           17.480936        2.133409       12.488628
  O            7.908448       15.264477        0.962474
  H            6.992511       15.660540        1.026959
  H            8.569018       14.871859        1.602370
  O           15.149116       13.559267       16.518887
  H           15.442749       14.271256       17.156710
  H           15.341592       13.322815       15.566516
  O            6.206091        0.005433       11.072371
  H            5.636337        0.084166       10.254356
  H            6.197108        0.390911       11.995027
  O            4.636464       17.622944       11.094343
  H            4.729359       17.992837       10.169943
  H            4.682799       17.989234       12.023671
  O            7.470328        9.873659       17.221096
  H            7.295422        8.897722       17.091007
  H            7.535951       10.494819       18.002006
  O           13.609605        7.057012       16.175787
  H           12.858110        6.407352       16.290517
  H           14.412982        7.130515       15.584898
  O            4.863435        4.798191        5.510847
  H            4.233905        4.022575        5.556445
  H            5.855869        4.918710        5.488134
  O            7.071534        6.463134        3.336658
  H            6.562798        5.698966        2.940170
  H            7.568647        6.631849        4.187764
  O            0.704516        8.283768        4.819239
  H            1.557636        8.482165        4.336754
  H           -0.018695        7.596770        4.748760
  O            6.994555       18.020039       16.411844
  H            6.391450       17.956919       15.616705
  H            7.934413       17.753019       16.624762
  O            2.189852        5.896690       10.112294
  H            2.965387        5.321284        9.852640
  H            1.635426        6.028683       10.933972
  O           17.122219        7.963707        0.020150
  H           17.959983        8.509550        0.033321
  H           16.898910        6.989157        0.001383
  O           17.029208       11.319828        9.443329
  H           17.880594       10.864264        9.703272
  H           16.074410       11.047027        9.325398
  O           12.234170        3.993614       17.450589
  H           11.415456        4.100046       18.014810
  H           13.163956        3.652678       17.589253
  O            8.949887       16.717017        6.301762
  H            8.878179       17.605882        6.754249
  H            9.670633       16.038755        6.158748
  O           13.081265       10.535460       15.290069
  H           12.435545       11.298671       15.267235
  H           13.799978       10.183161       14.690649
  O           16.941177        2.259674       17.673411
  H           15.997424        2.237874       18.003291
  H           17.807617        2.639929       17.996914
  O           14.247611        8.960538        9.649023
  H           14.196419        8.370493       10.454748
  H           13.750446        9.043314        8.785344
  O            4.003302        1.117433        6.616752
  H            4.994234        1.251383        6.607968
  H            3.197439        1.709496        6.620140
  O            6.545272        2.955600        3.057503
  H            6.117794        3.099099        2.164958
  H            6.237045        2.671087        3.965257
  O            9.925398        6.583538       -0.005121
  H           10.830504        6.158397       -0.003138
  H            9.569697        7.518120       -0.006199
  O           17.283455        9.107511       15.181895
  H           17.976949        9.827558       15.205679
  H           16.292089        9.067506       15.057152
  O            8.134045       11.876361        3.182560
  H            8.853200       12.491100        3.506411
  H            8.006632       11.268058        2.399170
  O            6.521489       10.233250        0.019154
  H            7.485226        9.966898        0.034423
  H            5.643398        9.755292       -0.002769
  O           -0.009040        7.744129        8.288893
  H            0.268121        7.713336        9.249206
  H            0.196323        7.217897        7.463743
  O            7.115313       14.624895       11.951300
  H            8.009435       14.280948       12.238028
  H            6.780072       15.281165       11.275364
  O           15.304659        0.256055        1.051056
  H           15.480060        0.992758        1.704103
  H           15.463794        0.106908        0.075148
  O            1.805943       17.985800        4.257547
  H            2.801834       18.008818        4.344944
  H            1.040994       17.680374        4.824587
  O            7.141148        4.867982       17.989214
  H            7.896663        5.472116       17.735863
  H            6.337782        4.489334       17.529653
  O           10.037798       11.621405       17.015657
  H            9.947325       12.186159       17.835921
  H           10.257187       10.665358       16.821209
  O           17.257730        6.626961       10.310761
  H           17.924892        7.356795       10.161746
  H           16.270047        6.574356       10.458003
  O            3.053752       13.135399        0.159842
  H            2.499725       12.331672       -0.057053
  H            2.889517       14.116823        0.258839
  O            3.813489        1.951604       13.903528
  H            4.239167        1.073433       14.121660
  H            3.468192        2.732562       14.423952
  O            1.120322       17.626182       10.244184
  H            1.683798       17.996408       10.982693
  H            0.567634       18.005120        9.501952
  O            5.518148       10.206743        4.448161
  H            5.775079        9.835752        3.555793
  H            4.664942       10.345133        4.951006
  O           17.977600        2.023526        0.525145
  H           18.000361        1.026850        0.603152
  H           17.271581        2.731185        0.552033
  O           10.505725        0.095096       13.081074
  H           10.727898       -0.009353       12.111694
  H            9.688583       -0.012385       13.647372
  O           13.139997        5.145705        8.763657
  H           12.373512        5.677116        8.403006
  H           14.026849        4.837652        8.419327
  O            8.824361        3.156468        6.555527
  H            9.116722        2.536397        7.283541
  H            8.085599        3.177253        5.881906
  O           10.838262        7.940855        8.158543
  H           10.275453        7.566806        7.421454
  H           11.010765        8.848010        8.542312
  O            6.000408       13.213989       17.078123
  H            5.652551       13.345895       18.006328
  H            6.802061       12.781923       16.665039
  O            9.889509       17.356031        0.045903
  H           10.233669       16.417198        0.056582
  H            8.991159       17.792269       -0.005394
  O           13.940082        4.592603       13.463154
  H           14.933374        4.668002       13.375669
  H           13.211076        5.137460       13.877458
  O           17.815566       15.447987        9.301636
  H           18.027223       15.812785       10.208328
  H           17.993732       14.595865        8.809588
  O            9.232886        9.841909       12.771768
  H            8.399595        9.312208       12.929915
  H           10.181539        9.635822       12.531870
  O            6.184528       12.053872       12.330067
  H            5.558772       12.377011       11.620154
  H            6.399021       12.312493       13.271914
  O           10.584039       10.166134        1.673928
  H           10.710176       10.745254        2.479333
  H           11.102653        9.440896        1.221119
  O           14.008672        0.421313        6.067532
  H           13.231862       -0.013348        5.611897
  H           14.939289        0.152576        6.315925
  O            0.946975        6.265503        0.022746
  H           -0.016087        6.534417        0.035532
  H            1.826308        6.741059       -0.001458
  O            3.954303       14.339842       12.728287
  H            4.244894       13.986553       13.617506
  H            4.181650       15.129895       12.158993
  O            7.667792        9.723973        6.093759
  H            8.030641       10.480233        5.549353
  H            7.757598        9.410225        7.038991
  O            0.010368       13.672166        0.783527
  H           -0.021961       12.686206        0.947244
  H            0.189977       14.265511       -0.001106
  O           12.101776        6.840235       11.325005
  H           11.408528        7.558610       11.267458
  H           12.099814        5.842825       11.396667
  O           16.117412       17.344960       11.458452
  H           15.275330       17.143954       11.958913
  H           16.381798       17.953995       10.710693
  O            3.545417       15.431181        5.201621
  H            4.229643       15.666287        4.511313
  H            2.546657       15.419719        5.249725
  O           14.627391        7.499728        2.868837
  H           15.255514        7.676236        2.111029
  H           13.901543        8.006131        3.334313
  O           17.157914        4.263168        3.896618
  H           16.834171        3.947394        3.004741
  H           18.014348        4.212075        4.410307
  O           17.935551       10.781516       18.005864
  H           18.055535        9.790134       17.953577
  H           17.877559       11.534593       17.350519
  O           17.213003        6.159714       13.017474
  H           16.661668        6.797659       13.555082
  H           18.014638        5.585361       13.183202
  O            7.844608        5.704990        7.216236
  H            7.697338        5.161588        8.042669
  H            7.723557        6.662293        6.953776
  O           18.054168        4.011794        7.989068
  H           17.698156        4.919411        8.211452
  H           18.025896        3.105105        8.409881
  O            9.644883        8.261822        3.418696
  H            8.895649        8.923253        3.452222
  H           10.616277        8.262675        3.656098
  O            2.831665       13.988896       17.708436
  H            3.014623       13.037671       17.460111
  H            2.034705       14.513724       18.007397
  O            5.641795       13.262571        6.161139
  H            5.782350       14.245620        6.278723
  H            6.180885       12.495377        5.813630
  O            0.613916        9.666337        0.867801
  H            0.064788       10.053675        0.127264
  H            0.594794        8.830175        1.415920
  O            8.451942        7.353709        9.518710
  H            9.041898        6.653796        9.921253
  H            8.454999        8.352158        9.463424
  O           10.435899        8.153893       17.890135
  H            9.647006        7.589911       17.646130
  H           11.418948        8.006853       17.999502
  O           15.537844       17.981487       16.063732
  H           16.463839       17.960873       15.686804
  H           15.133693       17.997053       16.978274
  O           11.699382       17.736592       17.110502
  H           12.158444       17.918313       17.980104
  H           10.832763       17.998849       16.686050
  O            4.538413        6.955564       17.643411
  H            5.468436        7.053747       17.997507
  H            3.626079        6.847481       18.038292
  O           15.077188       15.211849        9.363883
  H           14.396261       14.662519        9.848178
  H           15.122106       16.140129        8.994767
  O           13.076235       12.142696        0.005441
  H           12.205019       11.651920        0.014876
  H           13.361904       13.100896       -0.009136
  O            2.370546       -0.000069       11.344473
  H            1.757397        0.211713       10.583445
  H            3.260422        0.326067       11.663413
  O           11.110528       14.741172       10.451328
  H           10.121924       14.832837       10.570597
  H           11.919460       14.873331       11.024155
  O           12.730712       11.954416        4.929441
  H           13.670791       11.630524        4.823078
  H           12.204425       12.747942        4.623983
  O            4.668500       11.922862        8.644566
  H            4.239729       11.571276        7.812394
  H            5.529406       12.377244        8.873355
