6

C            -0.17321          -0.10000           0.00000
H            -0.17321           0.99000           0.00000
H             0.77076          -0.64500           0.00000
C            -1.33368          -0.77000           0.00000
H            -1.33368          -1.86000          -0.00000
H            -2.27765          -0.22500           0.00000
